31
chg:0 smi_ori:[O-]C(=O)CC(C[N+](C)(C)C)OC(=O)C smi_obb:[O]C(=O)C[C@@H](C[N](C)(C)C)OC(=O)C
C 4.543146 -2.841194 -1.641861
C 5.164335 -1.776073 -0.81272
O 6.303002 -1.351709 -0.857425
O 4.255369 -1.292687 0.085026
C 4.609626 -0.122689 0.920989
C 3.28245 0.560294 1.152709
C 3.37677 1.701303 2.233122
O 3.993576 1.380901 3.289481
O 2.881226 2.780555 1.93786
C 5.234679 -0.683346 2.212168
N 6.611011 -0.130835 2.561766
C 7.676597 -0.779732 1.712976
C 6.666817 1.367803 2.390286
C 6.871362 -0.444546 4.023897
H 4.41862 -2.497292 -2.683422
H 3.543423 -3.130948 -1.275933
H 5.173623 -3.742826 -1.675203
H 5.315841 0.506463 0.334496
H 2.504823 -0.149484 1.486443
H 2.890684 1.003562 0.218691
H 5.252791 -1.78902 2.186794
H 4.524173 -0.364385 3.068648
H 7.449794 -0.658082 0.623838
H 7.74046 -1.865053 1.890261
H 8.670378 -0.341435 1.891079
H 6.552163 1.671492 1.336678
H 7.594706 1.800757 2.782571
H 5.791566 1.84732 2.942925
H 6.800894 -1.524137 4.229213
H 6.113404 0.068636 4.66095
H 7.86419 -0.093023 4.345637
