54
chg:0 smi_ori:O=CNCCC[N+](Cc1ccc(c(c1)[N+](=O)[O-])OC)(CCCNC=O)C.[Cl-] smi_obb:O=CNCCC[N](Cc1ccc(c(c1)N(=O)=O)OC)(CCCNC=O)C.[Cl]
C 0.882328 -0.215121 -0.0667
N 2.339944 0.00088 0.152186
C 2.564313 0.773085 1.465262
C 1.948141 0.11141 2.697909
C 2.955217 -0.699768 3.528928
N 2.296137 -1.826494 4.231524
C 2.185475 -3.081643 3.646216
O 2.652358 -3.31343 2.536227
C 3.083328 -1.334873 0.241217
C 2.900673 -2.234988 -0.979988
C 3.530965 -3.612751 -0.687507
N 3.289447 -4.552074 -1.805536
C 3.898568 -4.365642 -3.047586
O 4.635582 -3.415549 -3.254675
C 2.933936 0.808348 -1.024081
C 2.65283 2.278682 -0.941395
C 3.654325 3.153885 -0.539927
C 3.398949 4.534396 -0.414269
C 2.093185 5.023866 -0.686742
C 1.091954 4.141003 -1.143609
C 1.364411 2.789065 -1.261505
O 1.933448 6.353031 -0.482695
C 0.591512 6.90875 -0.607092
N 4.478469 5.415309 0.022641
O 5.536129 4.880563 0.341946
O 4.281352 6.615624 0.047022
Cl -0.397841 2.216631 0.89741
H 0.455584 -0.995144 0.564875
H 0.602209 -0.384104 -1.10241
H 0.241187 0.801949 0.292662
H 2.077178 1.786888 1.350417
H 3.649878 0.956891 1.593678
H 1.068917 -0.510308 2.4167
H 1.486103 0.911431 3.32251
H 3.449321 -0.049121 4.285263
H 3.769799 -1.111048 2.886365
H 1.830882 -1.6053 5.106322
H 1.675248 -3.843837 4.257073
H 2.714756 -1.888544 1.153034
H 4.163754 -1.140568 0.415899
H 3.383732 -1.806967 -1.885013
H 1.828321 -2.358197 -1.229753
H 3.118929 -4.043888 0.256118
H 4.631949 -3.498245 -0.543251
H 2.615393 -5.290444 -1.645861
H 3.663076 -5.137613 -3.797051
H 2.523771 0.390817 -1.974717
H 4.033391 0.623683 -1.061718
H 4.665909 2.797614 -0.307632
H 0.078701 4.49607 -1.335917
H 0.583233 2.108841 -1.618167
H 0.766623 7.949142 -0.297842
H -0.09601 6.402759 0.079938
H 0.25746 6.854018 -1.645941
