38
chg:0 smi_ori:C[N+](Cc1ccccc1)(Cc1ccccc1)C.[Cl-] smi_obb:C[N](Cc1ccccc1)(Cc1ccccc1)C.[Cl]
C 0.848944 0.350559 0.09862
N 2.337147 0.147037 0.311397
C 2.682292 0.573719 1.724904
C 2.618061 -1.355791 0.151604
C 4.077019 -1.713984 0.236497
C 4.665245 -2.019371 1.4732
C 6.013711 -2.381214 1.532122
C 6.776278 -2.445426 0.361028
C 6.186514 -2.153458 -0.872932
C 4.838689 -1.791164 -0.939507
C 3.111294 0.93893 -0.699979
C 2.819776 2.39638 -0.734561
C 3.503821 3.289662 0.107318
C 3.232279 4.659288 0.047937
C 2.283393 5.149946 -0.854056
C 1.615721 4.266942 -1.709508
C 1.882733 2.897546 -1.654146
Cl 2.126602 -0.430677 -3.0406
H 0.244576 -0.253866 0.787021
H 0.570767 0.076589 -0.947566
H 0.570536 1.412428 0.218135
H 2.154522 -0.028413 2.477791
H 2.420701 1.635177 1.887081
H 3.768803 0.478261 1.902438
H 2.215109 -1.680333 -0.853224
H 2.02999 -1.917924 0.909026
H 4.076552 -1.9901 2.386925
H 6.470472 -2.619021 2.49154
H 7.827042 -2.727999 0.409628
H 6.775635 -2.210659 -1.788841
H 4.375612 -1.570546 -1.911599
H 2.787104 0.42898 -1.868625
H 4.189245 0.729649 -0.647817
H 4.263619 2.920837 0.791537
H 3.767648 5.346898 0.700076
H 2.074055 6.216512 -0.899998
H 0.892484 4.648267 -2.429495
H 1.387049 2.211227 -2.349308
