32
chg:0 smi_ori:CCC(OOOOOOC(CC)C)C smi_obb:CC[C@H](OOOOOO[C@H](CC)C)C
C 3.495468 -1.786583 1.13996
C 4.704917 -1.153213 0.46225
C 4.614383 -1.236069 -1.070052
C 5.535668 -0.247715 -1.777452
O 5.065027 -2.595016 -1.342247
O 4.494013 -3.029015 -2.606744
O 5.222743 -2.769434 -3.586808
O 6.094851 -4.022287 -3.921192
O 7.245446 -3.680285 -4.175326
O 8.155915 -3.910282 -3.058499
C 8.542645 -2.62042 -2.505057
C 8.241725 -2.712147 -1.014085
C 10.03978 -2.447379 -2.807992
C 10.281221 -2.034907 -4.255761
H 3.607042 -1.788215 2.230293
H 3.36865 -2.830991 0.822387
H 2.567007 -1.254969 0.904518
H 5.633103 -1.66325 0.796887
H 4.809392 -0.095282 0.771246
H 3.569834 -1.137225 -1.435058
H 6.566862 -0.32273 -1.4116
H 5.204639 0.786649 -1.642295
H 5.566432 -0.453677 -2.855773
H 7.931195 -1.829493 -2.991932
H 8.736003 -3.578695 -0.558794
H 7.156865 -2.852924 -0.855691
H 8.55373 -1.816623 -0.472146
H 10.560224 -3.404815 -2.598344
H 10.479834 -1.703597 -2.117497
H 9.821178 -2.751496 -4.949493
H 11.352482 -2.001447 -4.484857
H 9.866367 -1.045449 -4.475448
