16
chg:0 smi_ori:[O-]CCCC.[Mg+2].[Cl-] smi_obb:CCCCO[Mg]Cl
C 0.71991 -1.2829 -1.18043
C 1.7403 -0.50063 -0.35241
C 3.04971 -1.28481 -0.15493
C 4.24877 -0.66204 -0.89611
O 4.67666 0.51881 -0.29415
Mg 3.60139 1.23552 0.93525
Cl 2.3846 2.20673 2.47129
H -0.20076 -0.70492 -1.32508
H 0.43969 -2.22454 -0.69393
H 1.11176 -1.52871 -2.17463
H 1.28037 -0.25775 0.63056
H 1.92738 0.46767 -0.87556
H 2.92186 -2.3307 -0.50155
H 3.28807 -1.39827 0.92526
H 3.99414 -0.42004 -1.94846
H 5.12145 -1.34788 -0.88169
