56
chg:0 smi_ori:CN1CCN(CC1)C1Cc2ccc(cc2Sc2c1cccc2)Cl.OC(=O)C=CC(=O)O smi_obb:CN1CCN(CC1)[C@@H]1Cc2ccc(cc2Sc2c1cccc2)Cl.OC(=O)/C=C/C(=O)O
C 0.231355 -0.305638 -1.111224
N 1.656969 -0.713406 -0.90786
C 2.145215 -1.586496 -2.029691
C 2.445644 -0.831824 -3.339488
N 3.275224 0.393279 -3.197842
C 2.807044 1.238921 -2.066198
C 2.552043 0.482401 -0.749744
C 4.763538 0.22046 -3.276182
C 5.18386 0.589644 -4.721229
C 4.392757 -0.118471 -5.776363
C 4.642186 -1.468231 -6.052636
C 3.923513 -2.169737 -7.022784
C 2.937041 -1.478012 -7.727761
C 2.654844 -0.130509 -7.478204
C 3.382618 0.544011 -6.496938
Cl 2.032622 -2.311552 -8.93677
S 5.97028 -2.293714 -5.26436
C 5.736468 -2.195963 -3.51922
C 6.18613 -3.378968 -2.902025
C 6.233287 -3.473905 -1.51448
C 5.825258 -2.383208 -0.734627
C 5.370338 -1.224412 -1.354721
C 5.300397 -1.107737 -2.762363
C 0.371211 -0.905041 2.274039
C 0.562088 0.384743 2.531986
C -0.499162 1.400615 2.304081
O -0.849914 1.841052 1.237508
O -1.114731 1.896545 3.427077
C 1.480577 -1.918542 2.405878
O 1.760027 -2.487324 3.435233
O 2.140585 -2.162687 1.27323
H -0.416462 -1.19415 -1.055874
H 0.042357 0.19109 -2.075852
H -0.088202 0.397658 -0.317342
H 1.397461 -2.386046 -2.219748
H 3.060683 -2.109301 -1.663652
H 1.491771 -0.504719 -3.816274
H 2.926008 -1.528924 -4.062017
H 1.861498 1.722568 -2.410965
H 3.5251 2.068428 -1.893204
H 2.112322 1.167958 0.005911
H 3.520806 0.115171 -0.325868
H 5.237709 1.016479 -2.626285
H 6.272519 0.398261 -4.850374
H 5.068234 1.689389 -4.838541
H 4.123122 -3.223552 -7.228407
H 1.875877 0.382937 -8.042605
H 3.160552 1.58875 -6.278467
H 6.500832 -4.233893 -3.507194
H 6.58086 -4.38895 -1.036168
H 5.856415 -2.448479 0.353717
H 5.040596 -0.386261 -0.731133
H -0.582495 -1.325815 1.943084
H 1.515486 0.791033 2.88473
H -0.820837 1.486119 4.278735
H 1.820417 -1.556895 0.377649
