10
chg:0 smi_ori:[O-]S(=S)(=O)[O-].O.[Na+].[Na+] smi_obb:[Na]OS(O[Na])([S])[O].O
O 0.63251 -1.78727 -0.36355
O 1.90273 1.77858 0.66826
S 2.98795 0.7901 0.18985
O 2.33773 0.07743 -0.98153
S 4.55341 1.82841 -0.42599
O 3.23949 -0.16343 1.30806
Na 2.08329 3.09097 -1.19119
Na 1.14116 -0.57844 1.97451
H 1.31563 -1.19027 -0.85521
H 0.46801 -2.51493 -0.93103
