25
chg:0 smi_ori:Clc1ccc(cc1)N=[N+](c1ccc(cc1)Cl)[O-] smi_obb:Clc1ccc(cc1)[N]N(c1ccc(cc1)Cl)[O]
C -0.57298 0.41489 -0.80214
C 0.81354 0.29523 -0.69659
C 1.35473 -0.35625 0.41484
C 0.55019 -0.90113 1.42083
C -0.83506 -0.78203 1.31794
C -1.39617 -0.11865 0.20765
N -2.82467 -0.15348 0.10887
N -3.55436 0.87809 -0.10608
C -3.02544 2.26872 -0.20763
C -3.42796 3.05024 -1.30034
C -2.96292 4.36182 -1.4108
C -2.12054 4.86542 -0.41429
C -1.73324 4.09858 0.69006
C -2.19405 2.78507 0.79587
Cl -1.54596 6.48071 -0.54775
O -4.77092 0.77012 -0.24636
Cl 3.06717 -0.49536 0.54902
H -1.01074 0.90645 -1.67012
H 1.4645 0.7003 -1.47267
H 1.0001 -1.41526 2.27166
H -1.48806 -1.21308 2.07994
H -4.10851 2.63659 -2.05123
H -3.25895 4.98571 -2.25641
H -1.08277 4.52087 1.45856
H -1.90685 2.17341 1.65509
