30
chg:0 smi_ori:CC([N+](=Cc1ccc(cc1)[N+](=O)[O-])[O-])(C)C smi_obb:[O]N(C(C)(C)C)[CH]c1ccc(cc1)N(=O)=O
C 1.553769 0.87557 -1.065032
C 2.659545 0.157753 -0.290279
C 2.306974 -1.304271 0.000459
C 3.979928 0.252053 -1.063442
N 2.881039 0.836003 1.086992
C 1.917469 1.305655 1.868374
C 0.468641 1.286789 1.665336
C -0.259057 0.083848 1.731452
C -1.645818 0.094133 1.611595
C -2.308919 1.317269 1.419499
C -1.59638 2.526838 1.359118
C -0.210295 2.507782 1.484131
N -3.778623 1.332451 1.284211
O -4.362319 0.26123 1.333259
O -4.322133 2.413999 1.127255
O 4.071721 0.912799 1.447158
H 1.604945 0.620493 -2.133194
H 1.637713 1.967987 -1.000662
H 0.544952 0.598976 -0.73543
H 2.124133 -1.851539 -0.933415
H 1.405604 -1.411404 0.619431
H 3.125652 -1.823023 0.519917
H 3.940356 -0.325684 -1.992088
H 4.826865 -0.127954 -0.467361
H 4.234622 1.288564 -1.318289
H 2.223206 1.779183 2.819212
H 0.272156 -0.859856 1.882306
H -2.225141 -0.834627 1.667352
H -2.137914 3.469144 1.215826
H 0.35514 3.44021 1.445459
