31
chg:0 smi_ori:[O-]C(=O)C(F)(F)F.[NH3+]CC(=O)NCCSC(=O)C(Cl)(Cl)Cl smi_obb:[O]C(=O)C(F)(F)F.[NH3]CC(=O)NCCSC(=O)C(Cl)(Cl)Cl
C 0.565971 -0.28651 -1.507618
C 0.533612 -1.422456 -2.529024
S -1.124099 -1.486559 -3.265339
C -1.850155 -2.85376 -2.3835
O -1.260271 -3.509333 -1.580365
C -3.319849 -3.133936 -2.743971
Cl -3.947186 -2.147324 -4.03984
Cl -3.450518 -4.821354 -3.205455
Cl -4.287096 -2.862717 -1.30515
N 1.911147 -0.208035 -0.88599
C 2.867293 0.645875 -1.381797
O 2.687066 1.416506 -2.31325
C 4.233875 0.602653 -0.676418
N 4.464969 1.931248 -0.011718
H 4.113348 2.699733 -0.600669
H 3.892593 1.933642 1.05359
H 5.462423 2.084397 0.158869
C 2.925156 0.567406 2.517845
O 3.336831 1.755456 2.303139
C 2.280852 0.381097 3.924186
F 2.215136 1.505962 4.64278
F 1.021515 -0.07202 3.879292
F 2.933665 -0.488607 4.704678
O 3.001107 -0.378725 1.736869
H -0.185795 -0.446503 -0.698679
H 0.323887 0.691798 -1.996031
H 0.802579 -2.39826 -2.067221
H 1.259124 -1.252089 -3.352432
H 2.074009 -0.763744 -0.030261
H 5.014266 0.36425 -1.432761
H 4.278613 -0.20626 0.111102
