84
0       1
Zr      6.888397000     2.745743000     3.333300000
Si      4.572963000     0.622408000     2.393071000
O       6.667770000     4.530437000     2.756492000
O       6.126096000     6.728296000     2.398677000
O       8.521918000     2.281765000     4.154695000
O       10.530600000    1.481625000     4.934263000
C       5.227309000     3.519420000     5.185495000
H       5.117750000     4.514571000     5.598314000
C       5.994788000     2.472612000     5.749130000
H       6.554645000     2.529626000     6.674376000
C       5.747267000     1.303045000     5.006351000
H       6.102803000     0.310607000     5.260223000
C       4.797515000     1.605702000     3.991584000
C       4.509130000     2.991769000     4.098766000
H       3.762085000     3.518779000     3.517267000
C       7.792462000     2.579375000     0.552525000
C       6.381413000     2.382750000     0.767064000
C       6.175066000     1.240964000     1.618312000
C       7.490615000     0.732532000     1.923706000
C       8.487325000     1.543519000     1.270608000
C       9.837476000     1.202700000     1.356071000
H       10.583213000    1.798244000     0.848826000
C       10.207992000    0.083018000     2.070509000
H       11.249424000    -0.190156000    2.141368000
C       9.247828000     -0.702412000    2.714524000
H       9.568013000     -1.578199000    3.261497000
C       7.906411000     -0.393972000    2.657353000
H       7.179475000     -1.037273000    3.135428000
C       5.473016000     3.208581000     0.083253000
H       4.408215000     3.051120000     0.185136000
C       5.950264000     4.189182000     -0.757664000
H       5.251883000     4.813003000     -1.297028000
C       7.321532000     4.389307000     -0.942125000
H       7.657602000     5.169083000     -1.609183000
C       8.241334000     3.588606000     -0.300118000
H       9.299837000     3.723147000     -0.474923000
C       6.690477000     5.777984000     3.219728000
C       7.245273000     6.181691000     4.376456000
C       7.997138000     5.263308000     5.301772000
H       8.015137000     4.237288000     4.913676000
H       7.533891000     5.267305000     6.292471000
H       9.024512000     5.614134000     5.426612000
C       7.197017000     7.620783000     4.808292000
H       6.569333000     8.198341000     4.138391000
H       8.197143000     8.055565000     4.804235000
H       6.806456000     7.697763000     5.823766000
C       4.876109000     6.394425000     1.798369000
H       4.904991000     5.339711000     1.485659000
C       4.715298000     7.290467000     0.577532000
H       5.548249000     7.138162000     -0.102577000
H       4.706453000     8.332674000     0.886080000
H       3.784879000     7.060877000     0.065481000
C       3.740553000     6.603251000     2.802398000
H       3.917967000     6.009181000     3.696627000
H       2.790907000     6.309530000     2.362397000
H       3.688608000     7.650996000     3.089622000
C       9.843340000     2.416297000     4.191837000
C       9.800153000     0.765534000     5.921536000
H       8.846622000     0.425675000     5.486239000
C       9.518221000     1.662393000     7.128753000
H       8.972526000     2.549306000     6.810311000
H       10.456595000    1.977074000     7.580157000
H       8.929191000     1.125108000     7.867607000
C       10.649604000    -0.438801000    6.306873000
H       10.863208000    -1.037554000    5.426473000
H       10.124510000    -1.047657000    7.037600000
H       11.591972000    -0.102717000    6.731225000
C       10.545085000    3.378688000     3.569388000
C       12.039873000    3.462305000     3.689560000
H       12.394995000    2.790065000     4.463126000
H       12.341665000    4.481761000     3.930915000
H       12.518270000    3.187917000     2.748451000
C       9.903456000     4.392563000     2.663464000
H       8.843590000     4.163860000     2.488267000
H       10.421467000    4.407677000     1.703222000
H       9.981250000     5.397515000     3.085282000
C       4.494129000     -1.271952000    2.664661000
H       5.005984000     -1.805487000    1.870685000
H       3.462898000     -1.607587000    2.672007000
H       4.935998000     -1.571565000    3.608972000
C       2.967421000     1.123069000     1.482418000
H       3.003056000     0.831057000     0.438385000
H       2.777244000     2.189787000     1.528029000
H       2.116311000     0.623713000     1.933025000
