103
0	3
Ni	13.169722000	2.805950000	4.595488000
C	12.967217000	-0.191314000	4.915631000
C	12.298604000	-1.282931000	4.257111000
C	11.173273000	-0.769192000	3.674382000
C	11.153302000	0.640568000	3.966187000
C	10.133145000	1.548231000	3.664535000
C	10.327552000	2.940493000	3.688479000
C	9.280041000	3.917410000	3.572268000
C	9.911119000	5.151701000	3.449534000
C	11.322947000	4.888211000	3.503127000
C	12.326841000	5.853341000	3.301475000
C	13.663199000	5.630018000	3.641519000
C	14.796577000	6.444419000	3.288786000
C	15.868085000	5.962923000	3.988710000
C	15.396812000	4.846171000	4.765739000
C	16.120028000	4.115206000	5.713571000
C	15.700185000	2.857310000	6.180471000
C	16.296260000	2.149287000	7.280053000
C	15.718575000	0.883180000	7.286183000
C	14.783012000	0.862900000	6.195484000
C	14.063679000	-0.271856000	5.777505000
N	12.280007000	0.954556000	4.657644000
N	11.530440000	3.565128000	3.698307000
N	14.084698000	4.642668000	4.477790000
N	14.762823000	2.074483000	5.592622000
Br	12.889986000	-3.049962000	4.026799000
Br	10.031824000	-1.746979000	2.548294000
C	7.900413000	3.716784000	3.679925000
N	6.764370000	3.613402000	3.815249000
C	9.270882000	6.394097000	3.411457000
N	8.699041000	7.390189000	3.435013000
Br	14.910217000	7.790014000	1.984280000
Br	17.630755000	6.570106000	3.762235000
C	17.185538000	2.642448000	8.239801000
N	17.872279000	3.013686000	9.082517000
C	15.934267000	-0.105169000	8.251429000
N	16.108146000	-0.862977000	9.097124000
C	8.795590000	1.058312000	3.297898000
C	8.060992000	0.294333000	4.201364000
C	6.792528000	-0.139944000	3.871474000
C	6.252576000	0.166369000	2.633405000
C	6.981992000	0.914664000	1.725713000
C	8.243679000	1.368402000	2.057413000
C	11.904067000	7.152971000	2.757259000
C	11.295595000	7.228300000	1.507165000
C	10.877583000	8.447720000	1.010861000
C	11.042483000	9.597326000	1.763935000
C	11.640642000	9.528808000	3.011162000
C	12.078194000	8.315736000	3.504160000
C	17.376505000	4.653597000	6.256643000
C	17.373958000	5.856761000	6.958044000
C	18.546847000	6.348214000	7.495846000
C	19.734269000	5.656319000	7.324065000
C	19.746362000	4.466257000	6.617312000
C	18.572934000	3.959684000	6.093650000
C	14.481342000	-1.568875000	6.331894000
C	15.767962000	-2.050229000	6.104889000
C	16.163546000	-3.257041000	6.648101000
C	15.289138000	-3.982680000	7.438589000
C	14.010285000	-3.506404000	7.674502000
C	13.602638000	-2.310407000	7.118127000
N	12.277242000	3.336366000	6.535595000
C	12.027402000	2.405190000	7.450581000
C	11.461349000	2.692170000	8.681572000
C	11.130142000	4.004605000	8.975189000
C	11.386548000	4.975327000	8.021088000
C	11.963920000	4.596254000	6.820628000
N	14.053628000	2.281835000	2.673035000
C	13.292668000	1.893111000	1.654748000
C	13.808680000	1.565162000	0.412012000
C	15.176326000	1.653012000	0.211580000
C	15.969769000	2.061016000	1.271001000
C	15.366817000	2.359532000	2.481556000
H	8.487267000	0.061397000	5.167333000
H	6.223861000	-0.720231000	4.582236000
H	5.262771000	-0.178264000	2.376656000
H	6.565459000	1.151218000	0.758553000
H	8.816921000	1.949435000	1.348060000
H	11.171621000	6.328196000	0.921182000
H	10.415558000	8.498934000	0.036742000
H	10.704291000	10.547318000	1.379849000
H	11.766895000	10.423464000	3.601784000
H	12.543434000	8.257047000	4.478733000
H	16.442954000	6.390240000	7.091090000
H	18.534606000	7.274607000	8.049869000
H	20.650151000	6.045166000	7.741640000
H	20.670952000	3.927115000	6.478267000
H	18.580996000	3.032415000	5.537345000
H	16.446527000	-1.481497000	5.484407000
H	17.159349000	-3.628082000	6.459229000
H	15.604006000	-4.919341000	7.872052000
H	13.327950000	-4.068617000	8.293812000
H	12.605732000	-1.933361000	7.301765000
H	12.286610000	1.387655000	7.193795000
H	11.285728000	1.899403000	9.391283000
H	10.683917000	4.264201000	9.923152000
H	11.145295000	6.011257000	8.198976000
H	12.182827000	5.336115000	6.063499000
H	12.227773000	1.838353000	1.832692000
H	13.147104000	1.248888000	-0.378786000
H	15.612566000	1.409458000	-0.745275000
H	17.039679000	2.147895000	1.166962000
H	15.966447000	2.672711000	3.324733000
