68
0	1
Ge	1.123245000	2.413114000	1.528700000
Sn	1.673441000	5.898121000	1.279231000
Si	3.472929000	3.804920000	3.303013000
C	2.506686000	3.864241000	1.657500000
C	4.573071000	5.346530000	3.389034000
B	3.456852000	3.582476000	0.468319000
C	4.379945000	6.358712000	4.320999000
H	3.579491000	6.269165000	5.040399000
C	3.654007000	3.979922000	-2.672185000
H	3.444712000	5.030980000	-2.859614000
H	2.712722000	3.483478000	-2.450193000
H	4.099583000	3.543150000	-3.560946000
C	6.233808000	7.595846000	3.436812000
H	6.874057000	8.466296000	3.453887000
O	3.944800000	4.527128000	-0.379932000
O	3.842677000	2.318506000	0.114932000
C	4.788010000	2.410392000	-0.950799000
C	4.599504000	3.883918000	-1.469464000
C	0.634862000	2.077247000	-0.368342000
H	-0.301539000	1.527064000	-0.421436000
H	1.405090000	1.480362000	-0.844301000
H	0.519081000	2.999299000	-0.928350000
C	4.637807000	2.293215000	3.372382000
H	4.703552000	1.832010000	2.394421000
H	4.284888000	1.540902000	4.069456000
H	5.639499000	2.581208000	3.677130000
C	5.618426000	5.487611000	2.483649000
H	5.777680000	4.709954000	1.751151000
C	2.299029000	3.760564000	4.802446000
H	1.723598000	2.840524000	4.811184000
H	1.599789000	4.589180000	4.792672000
H	2.861124000	3.806212000	5.729610000
C	0.478039000	6.644614000	2.976029000
H	-0.079211000	7.510247000	2.639930000
H	1.128088000	6.958103000	3.783626000
H	-0.224492000	5.913103000	3.353615000
C	0.343684000	5.888079000	-0.480937000
H	-0.043537000	6.890095000	-0.633745000
H	-0.494747000	5.212973000	-0.344797000
H	0.891483000	5.594102000	-1.369417000
C	-0.551040000	2.953154000	2.461959000
H	-1.270409000	2.141286000	2.403634000
H	-0.991107000	3.829357000	1.994533000
H	-0.380132000	3.174529000	3.509267000
C	6.442682000	6.596606000	2.500600000
H	7.248693000	6.687648000	1.785531000
C	1.753166000	0.692271000	2.287315000
H	1.002260000	-0.072066000	2.107082000
H	1.923497000	0.755584000	3.355990000
H	2.674615000	0.385395000	1.807613000
C	3.190242000	7.440357000	0.899732000
H	2.708081000	8.298445000	0.446171000
H	3.950059000	7.062678000	0.230435000
H	3.660553000	7.753049000	1.822913000
C	4.499025000	1.324289000	-1.984969000
H	4.652951000	0.350632000	-1.525421000
H	5.172913000	1.423799000	-2.831719000
H	3.472464000	1.372661000	-2.333640000
C	6.176763000	2.159741000	-0.348415000
H	6.181371000	1.176396000	0.117614000
H	6.398256000	2.894872000	0.421610000
H	6.947111000	2.189154000	-1.113280000
C	5.894318000	4.626367000	-1.791784000
H	5.646593000	5.623688000	-2.147588000
H	6.446901000	4.103440000	-2.567845000
H	6.518767000	4.731555000	-0.910106000
C	5.199594000	7.473662000	4.348623000
H	5.032295000	8.250437000	5.081806000
