84
1	1
Ag	6.714973000	3.877011000	8.636500000
S	4.028518000	2.920469000	8.636500000
P	6.715065000	3.876881000	11.107156000
C	5.094325000	3.559565000	11.886780000
C	4.713080000	4.265159000	13.026124000
H	5.390192000	4.988107000	13.458436000
C	3.479525000	4.047348000	13.611545000
H	3.201739000	4.597560000	14.497293000
C	2.607098000	3.126078000	13.057756000
H	1.642223000	2.952250000	13.507767000
C	2.972585000	2.429229000	11.919764000
H	2.286820000	1.717586000	11.484286000
C	4.211074000	2.627332000	11.322179000
C	4.538743000	1.874815000	10.071630000
H	3.967749000	0.948936000	10.007170000
H	5.608881000	1.658964000	9.985975000
S	8.886503000	2.028369000	8.636500000
C	7.800218000	2.631961000	11.886833000
C	7.379798000	1.949073000	13.026230000
H	6.415176000	2.174048000	13.458570000
C	8.185203000	0.989698000	13.611673000
H	7.847620000	0.474083000	14.497464000
C	9.419229000	0.694722000	13.057852000
H	10.052202000	-0.053964000	13.507880000
C	9.839954000	1.359594000	11.919806000
H	10.799115000	1.121473000	11.484307000
C	9.049149000	2.333092000	11.322197000
C	9.536987000	2.993070000	10.071611000
H	10.624318000	2.961497000	10.007125000
H	9.188863000	4.027766000	9.985943000
S	7.229969000	6.681841000	8.636500000
C	7.250589000	5.439153000	11.886775000
C	8.052287000	5.416543000	13.026111000
H	8.339859000	4.468679000	13.458414000
C	8.480400000	6.593748000	13.611540000
H	9.095801000	6.559225000	14.497282000
C	8.118720000	7.809920000	13.057768000
H	8.450584000	8.732450000	13.507787000
C	7.332477000	7.841807000	11.919780000
H	7.059021000	8.791514000	11.484315000
C	6.884837000	6.670181000	11.322182000
C	6.069291000	6.762665000	10.071639000
H	5.552894000	7.720073000	10.007216000
H	5.347332000	5.943788000	9.985960000
P	6.715065000	3.876882000	6.165843000
C	5.094325000	3.559566000	5.386221000
C	4.713080000	4.265160000	4.246876000
H	5.390191000	4.988108000	3.814564000
C	3.479524000	4.047350000	3.661456000
H	3.201737000	4.597562000	2.775709000
C	2.607097000	3.126080000	4.215246000
H	1.642221000	2.952252000	3.765236000
C	2.972585000	2.429230000	5.353238000
H	2.286820000	1.717588000	5.788717000
C	4.211074000	2.627333000	5.950822000
C	4.538744000	1.874816000	7.201371000
H	3.967750000	0.948936000	7.265831000
H	5.608882000	1.658965000	7.287025000
C	7.800218000	2.631960000	5.386166000
C	7.379797000	1.949074000	4.246769000
H	6.415175000	2.174049000	3.814430000
C	8.185201000	0.989698000	3.661326000
H	7.847617000	0.474083000	2.775534000
C	9.419226000	0.694720000	4.215148000
H	10.052199000	-0.053967000	3.765120000
C	9.839952000	1.359591000	5.353194000
H	10.799113000	1.121469000	5.788693000
C	9.049148000	2.333090000	5.950802000
C	9.536987000	2.993068000	7.201388000
H	10.624318000	2.961495000	7.265874000
H	9.188864000	4.027765000	7.287055000
C	7.250591000	5.439154000	5.386224000
C	8.052290000	5.416543000	4.246889000
H	8.339862000	4.468679000	3.814587000
C	8.480406000	6.593748000	3.661461000
H	9.095807000	6.559224000	2.775720000
C	8.118725000	7.809920000	4.215233000
H	8.450592000	8.732449000	3.765215000
C	7.332481000	7.841807000	5.353220000
H	7.059025000	8.791514000	5.788685000
C	6.884839000	6.670182000	5.950817000
C	6.069292000	6.762666000	7.201360000
H	5.552896000	7.720073000	7.265782000
H	5.347333000	5.943789000	7.287038000
